LAMMPS (23 Jun 2022 - Update 1)
units        metal
dimension	3
boundary	p p p
atom_style	atomic
neighbor      2.0 bin
neigh_modify  delay 10 check yes

read_data     5.lmp
Reading data file ...
  orthogonal box = (0 0 0) to (1203.9264 199.32649 201.4765)
  reading atoms ...
  2704396 atoms
  reading velocities ...
  2704396 velocities

pair_style	eam/alloy
pair_coeff   * * AlVTi.eam.alloy Ti Al V
Reading eam/alloy potential file AlVTi.eam.alloy with DATE: 2023-02-26

timestep	       0.001
thermo 100
thermo_style custom step lx ly lz press pxx pyy pzz density temp ke pe  etotal enthalpy ebond eangle emol vol density
velocity       all create 300 12345 mom yes rot no
min_style cg
minimize 1.0e-25 1.0e-25 5000 50000
  update every 1 steps, delay 0 steps, check yes
Step           Lx             Ly             Lz           Press           Pxx            Pyy            Pzz          Density          Temp          KinEng         PotEng         TotEng        Enthalpy        E_bond        E_angle         E_mol          Volume        Density
0   1203.9264      199.32649      201.4765       22781.022      9498.5622      14258.625      44585.879      4.3420776      300            104871.15     -12480018      -12375147      -11687679       0              0              0              48349206       4.3420776
Averages over the last 21 of 42 rows, steps 2100 to 4015:
Lx Ly Lz Press Pxx Pyy Pzz Density Temp KinEng PotEng TotEng Enthalpy E_bond E_angle E_mol Volume Density
1203.93 199.326 201.476 -1778.09 -9292 -9082.53 13040.3 4.34208 300 104871 -1.2967e+07 -1.28622e+07 -1.29158e+07 0 0 0 4.83492e+07 4.34208
Loop time of 6204.03 on 8 procs for 4015 steps with 2704396 atoms

Minimization stats:
  Stopping criterion = linesearch alpha is zero
  Energy initial, next-to-last, final =
  Force two-norm initial, final = 22118.936 0.042585877
  Force max component initial, final = 705.92715 0.0045872139
  Final line search alpha, max atom move = 3.8146973e-06 1.7498832e-08
  Iterations, force evaluations = 4015 6397

write_data      6.lmp
System init for write_data ...

reset_timestep	0
velocity       all create 300 12345 mom yes rot no
fix       1 all npt temp 300.0 300.0 0.001 x 0 0 0.1 y 0 0 0.1 z 0 0 0.1
thermo          100
thermo_style    custom step lx ly lz press pxx pyy pzz  density temp ke pe  etotal enthalpy ebond eangle emol vol density

# Run for at least 10 picosecond (assuming 1 fs timestep)
run             20000
Step           Lx             Ly             Lz           Press           Pxx            Pyy            Pzz          Density          Temp          KinEng         PotEng         TotEng        Enthalpy        E_bond        E_angle         E_mol          Volume        Density
0   1203.9264      199.32649      201.4765      -1779.3447     -9293.8513     -9085.4587      13041.276      4.3420776      300            104871.15     -12967057      -12862186      -12915882       0              0              0              48349206       4.3420776
Averages over the last 101 of 201 rows, steps 10000 to 20000:
Lx Ly Lz Press Pxx Pyy Pzz Density Temp KinEng PotEng TotEng Enthalpy E_bond E_angle E_mol Volume Density
1195.97 198.031 205.486 -0.312151 0.308205 -1.29416 0.0494988 4.31372 300.005 104873 -1.28682e+07 -1.27633e+07 -1.27633e+07 0 0 0 4.86671e+07 4.31372
Loop time of 18961.9 on 8 procs for 20000 steps with 2704396 atoms

write_data      7.lmp
System init for write_data ...
